first line.
I'm write something here!

new line.
Great!